<?xml version="1.0" encoding="UTF-8"?>
<configuration xmlns:xsi="http://www.w3.org/2001/XMLSchema-instance" xsi:noNamespaceSchemaLocation="http://sumo.dlr.de/xsd/sumoConfiguration.xsd">
  <input>
    <net-file value="../nets/cross.net.xml"/>
    <route-files value="../routes/cross.rou.xml"/>
  </input>
  <time>
    <step-length value="1"/>
    <begin value="0"/>
    <end value="3600"/>
  </time>
  <report>
    <verbose value="true"/>
    <no-step-log value="true"/>
  </report>
</configuration>
