<?xml version="1.0" encoding="UTF-8"?>

<!-- generated on 2025-10-08 08:32:14 by Eclipse SUMO netconvert Version 1.24.0
<netconvertConfiguration xmlns:xsi="http://www.w3.org/2001/XMLSchema-instance" xsi:noNamespaceSchemaLocation="http://sumo.dlr.de/xsd/netconvertConfiguration.xsd">

    <input>
        <node-files value="cross.nod.xml"/>
        <edge-files value="cross.edg.xml"/>
    </input>

    <output>
        <output-file value="cross.net.xml"/>
    </output>

    <tls_building>
        <tls.guess value="1"/>
    </tls_building>

</netconvertConfiguration>
-->

<net version="1.20" junctionCornerDetail="5" limitTurnSpeed="5.50" xmlns:xsi="http://www.w3.org/2001/XMLSchema-instance" xsi:noNamespaceSchemaLocation="http://sumo.dlr.de/xsd/net_file.xsd">

    <location netOffset="100.00,100.00" convBoundary="0.00,0.00,200.00,200.00" origBoundary="-100.00,-100.00,100.00,100.00" projParameter="!"/>

    <edge id=":E_0" function="internal">
        <lane id=":E_0_0" index="0" speed="3.65" length="4.67" shape="200.00,98.40 201.20,99.20 201.60,100.00 201.20,100.80 200.00,101.60"/>
    </edge>
    <edge id=":J0_0" function="internal">
        <lane id=":J0_0_0" index="0" speed="6.51" length="9.03" shape="98.40,107.20 98.05,104.75 97.00,103.00 95.25,101.95 92.80,101.60"/>
    </edge>
    <edge id=":J0_1" function="internal">
        <lane id=":J0_1_0" index="0" speed="13.89" length="14.40" shape="98.40,107.20 98.40,92.80"/>
    </edge>
    <edge id=":J0_2" function="internal">
        <lane id=":J0_2_0" index="0" speed="8.00" length="4.07" shape="98.40,107.20 98.95,103.35 99.04,103.20"/>
    </edge>
    <edge id=":J0_3" function="internal">
        <lane id=":J0_3_0" index="0" speed="3.65" length="1.44" shape="98.40,107.20 99.20,106.00"/>
    </edge>
    <edge id=":J0_16" function="internal">
        <lane id=":J0_16_0" index="0" speed="8.00" length="10.13" shape="99.04,103.20 100.60,100.60 103.35,98.95 107.20,98.40"/>
    </edge>
    <edge id=":J0_17" function="internal">
        <lane id=":J0_17_0" index="0" speed="3.65" length="3.23" shape="99.20,106.00 100.00,105.60 100.80,106.00 101.60,107.20"/>
    </edge>
    <edge id=":J0_4" function="internal">
        <lane id=":J0_4_0" index="0" speed="6.51" length="9.03" shape="107.20,101.60 104.75,101.95 103.00,103.00 101.95,104.75 101.60,107.20"/>
    </edge>
    <edge id=":J0_5" function="internal">
        <lane id=":J0_5_0" index="0" speed="13.89" length="14.40" shape="107.20,101.60 92.80,101.60"/>
    </edge>
    <edge id=":J0_6" function="internal">
        <lane id=":J0_6_0" index="0" speed="8.00" length="4.07" shape="107.20,101.60 103.35,101.05 103.20,100.96"/>
    </edge>
    <edge id=":J0_7" function="internal">
        <lane id=":J0_7_0" index="0" speed="3.65" length="1.44" shape="107.20,101.60 106.00,100.80"/>
    </edge>
    <edge id=":J0_18" function="internal">
        <lane id=":J0_18_0" index="0" speed="8.00" length="10.13" shape="103.20,100.96 100.60,99.40 98.95,96.65 98.40,92.80"/>
    </edge>
    <edge id=":J0_19" function="internal">
        <lane id=":J0_19_0" index="0" speed="3.65" length="3.23" shape="106.00,100.80 105.60,100.00 106.00,99.20 107.20,98.40"/>
    </edge>
    <edge id=":J0_8" function="internal">
        <lane id=":J0_8_0" index="0" speed="6.51" length="9.03" shape="101.60,92.80 101.95,95.25 103.00,97.00 104.75,98.05 107.20,98.40"/>
    </edge>
    <edge id=":J0_9" function="internal">
        <lane id=":J0_9_0" index="0" speed="13.89" length="14.40" shape="101.60,92.80 101.60,107.20"/>
    </edge>
    <edge id=":J0_10" function="internal">
        <lane id=":J0_10_0" index="0" speed="8.00" length="4.07" shape="101.60,92.80 101.05,96.65 100.96,96.80"/>
    </edge>
    <edge id=":J0_11" function="internal">
        <lane id=":J0_11_0" index="0" speed="3.65" length="1.44" shape="101.60,92.80 100.80,94.00"/>
    </edge>
    <edge id=":J0_20" function="internal">
        <lane id=":J0_20_0" index="0" speed="8.00" length="10.13" shape="100.96,96.80 99.40,99.40 96.65,101.05 92.80,101.60"/>
    </edge>
    <edge id=":J0_21" function="internal">
        <lane id=":J0_21_0" index="0" speed="3.65" length="3.23" shape="100.80,94.00 100.00,94.40 99.20,94.00 98.40,92.80"/>
    </edge>
    <edge id=":J0_12" function="internal">
        <lane id=":J0_12_0" index="0" speed="6.51" length="9.03" shape="92.80,98.40 95.25,98.05 97.00,97.00 98.05,95.25 98.40,92.80"/>
    </edge>
    <edge id=":J0_13" function="internal">
        <lane id=":J0_13_0" index="0" speed="13.89" length="14.40" shape="92.80,98.40 107.20,98.40"/>
    </edge>
    <edge id=":J0_14" function="internal">
        <lane id=":J0_14_0" index="0" speed="8.00" length="4.07" shape="92.80,98.40 96.65,98.95 96.80,99.04"/>
    </edge>
    <edge id=":J0_15" function="internal">
        <lane id=":J0_15_0" index="0" speed="3.65" length="1.44" shape="92.80,98.40 94.00,99.20"/>
    </edge>
    <edge id=":J0_22" function="internal">
        <lane id=":J0_22_0" index="0" speed="8.00" length="10.13" shape="96.80,99.04 99.40,100.60 101.05,103.35 101.60,107.20"/>
    </edge>
    <edge id=":J0_23" function="internal">
        <lane id=":J0_23_0" index="0" speed="3.65" length="3.23" shape="94.00,99.20 94.40,100.00 94.00,100.80 92.80,101.60"/>
    </edge>
    <edge id=":N_0" function="internal">
        <lane id=":N_0_0" index="0" speed="3.65" length="4.67" shape="101.60,200.00 100.80,201.20 100.00,201.60 99.20,201.20 98.40,200.00"/>
    </edge>
    <edge id=":S_0" function="internal">
        <lane id=":S_0_0" index="0" speed="3.65" length="4.67" shape="98.40,0.00 99.20,-1.20 100.00,-1.60 100.80,-1.20 101.60,0.00"/>
    </edge>
    <edge id=":W_0" function="internal">
        <lane id=":W_0_0" index="0" speed="3.65" length="4.67" shape="0.00,101.60 -1.20,100.80 -1.60,100.00 -1.20,99.20 0.00,98.40"/>
    </edge>

    <edge id="E2J0" from="E" to="J0" priority="1">
        <lane id="E2J0_0" index="0" speed="13.89" length="92.80" shape="200.00,101.60 107.20,101.60"/>
    </edge>
    <edge id="J02E" from="J0" to="E" priority="1">
        <lane id="J02E_0" index="0" speed="13.89" length="92.80" shape="107.20,98.40 200.00,98.40"/>
    </edge>
    <edge id="J02N" from="J0" to="N" priority="1">
        <lane id="J02N_0" index="0" speed="13.89" length="92.80" shape="101.60,107.20 101.60,200.00"/>
    </edge>
    <edge id="J02S" from="J0" to="S" priority="1">
        <lane id="J02S_0" index="0" speed="13.89" length="92.80" shape="98.40,92.80 98.40,0.00"/>
    </edge>
    <edge id="J02W" from="J0" to="W" priority="1">
        <lane id="J02W_0" index="0" speed="13.89" length="92.80" shape="92.80,101.60 0.00,101.60"/>
    </edge>
    <edge id="N2J0" from="N" to="J0" priority="1">
        <lane id="N2J0_0" index="0" speed="13.89" length="92.80" shape="98.40,200.00 98.40,107.20"/>
    </edge>
    <edge id="S2J0" from="S" to="J0" priority="1">
        <lane id="S2J0_0" index="0" speed="13.89" length="92.80" shape="101.60,0.00 101.60,92.80"/>
    </edge>
    <edge id="W2J0" from="W" to="J0" priority="1">
        <lane id="W2J0_0" index="0" speed="13.89" length="92.80" shape="0.00,98.40 92.80,98.40"/>
    </edge>

    <tlLogic id="J0" type="static" programID="0" offset="0">
        <phase duration="42" state="GGggrrrrGGggrrrr"/>
        <phase duration="3"  state="yyyyrrrryyyyrrrr"/>
        <phase duration="42" state="rrrrGGggrrrrGGgg"/>
        <phase duration="3"  state="rrrryyyyrrrryyyy"/>
    </tlLogic>

    <junction id="E" type="priority" x="200.00" y="100.00" incLanes="J02E_0" intLanes=":E_0_0" shape="200.00,100.00 200.00,96.80 200.00,100.00">
        <request index="0" response="0" foes="0" cont="0"/>
    </junction>
    <junction id="J0" type="traffic_light" x="100.00" y="100.00" incLanes="N2J0_0 E2J0_0 S2J0_0 W2J0_0" intLanes=":J0_0_0 :J0_1_0 :J0_16_0 :J0_17_0 :J0_4_0 :J0_5_0 :J0_18_0 :J0_19_0 :J0_8_0 :J0_9_0 :J0_20_0 :J0_21_0 :J0_12_0 :J0_13_0 :J0_22_0 :J0_23_0" shape="96.80,107.20 103.20,107.20 103.64,104.98 104.20,104.20 104.98,103.64 105.98,103.31 107.20,103.20 107.20,96.80 104.98,96.36 104.20,95.80 103.64,95.02 103.31,94.02 103.20,92.80 96.80,92.80 96.36,95.02 95.80,95.80 95.02,96.36 94.02,96.69 92.80,96.80 92.80,103.20 95.02,103.64 95.80,104.20 96.36,104.98 96.69,105.98">
        <request index="0"  response="0000000000000000" foes="1000010000100000" cont="0"/>
        <request index="1"  response="0100000001000000" foes="0111110001100000" cont="0"/>
        <request index="2"  response="0100011101000000" foes="0110011111100000" cont="1"/>
        <request index="3"  response="0100001000010000" foes="0100001000010000" cont="1"/>
        <request index="4"  response="0000001000000000" foes="0100001000001000" cont="0"/>
        <request index="5"  response="0000011000000111" foes="1100011000000111" cont="0"/>
        <request index="6"  response="0111011000000110" foes="0111111000000110" cont="1"/>
        <request index="7"  response="0010000100000100" foes="0010000100000100" cont="1"/>
        <request index="8"  response="0000000000000000" foes="0010000010000100" cont="0"/>
        <request index="9"  response="0100000001000000" foes="0110000001111100" cont="0"/>
        <request index="10" response="0100000001000011" foes="1110000001100111" cont="1"/>
        <request index="11" response="0001000001000010" foes="0001000001000010" cont="1"/>
        <request index="12" response="0000000000000010" foes="0000100001000010" cont="0"/>
        <request index="13" response="0000011100000110" foes="0000011111000110" cont="0"/>
        <request index="14" response="0000011000110110" foes="0000011001111110" cont="1"/>
        <request index="15" response="0000010000100001" foes="0000010000100001" cont="1"/>
    </junction>
    <junction id="N" type="priority" x="100.00" y="200.00" incLanes="J02N_0" intLanes=":N_0_0" shape="100.00,200.00 103.20,200.00 100.00,200.00">
        <request index="0" response="0" foes="0" cont="0"/>
    </junction>
    <junction id="S" type="priority" x="100.00" y="0.00" incLanes="J02S_0" intLanes=":S_0_0" shape="100.00,0.00 96.80,0.00 100.00,0.00">
        <request index="0" response="0" foes="0" cont="0"/>
    </junction>
    <junction id="W" type="priority" x="0.00" y="100.00" incLanes="J02W_0" intLanes=":W_0_0" shape="0.00,100.00 0.00,103.20 0.00,100.00">
        <request index="0" response="0" foes="0" cont="0"/>
    </junction>

    <junction id=":J0_16_0" type="internal" x="99.04" y="103.20" incLanes=":J0_2_0 S2J0_0" intLanes=":J0_5_0 :J0_6_0 :J0_7_0 :J0_8_0 :J0_9_0 :J0_13_0 :J0_14_0"/>
    <junction id=":J0_17_0" type="internal" x="99.20" y="106.00" incLanes=":J0_3_0 E2J0_0 S2J0_0 W2J0_0" intLanes=":J0_4_0 :J0_9_0 :J0_14_0"/>
    <junction id=":J0_18_0" type="internal" x="103.20" y="100.96" incLanes=":J0_6_0 W2J0_0" intLanes=":J0_1_0 :J0_2_0 :J0_9_0 :J0_10_0 :J0_11_0 :J0_12_0 :J0_13_0"/>
    <junction id=":J0_19_0" type="internal" x="106.00" y="100.80" incLanes=":J0_7_0 N2J0_0 S2J0_0 W2J0_0" intLanes=":J0_2_0 :J0_8_0 :J0_13_0"/>
    <junction id=":J0_20_0" type="internal" x="100.96" y="96.80" incLanes=":J0_10_0 N2J0_0" intLanes=":J0_0_0 :J0_1_0 :J0_5_0 :J0_6_0 :J0_13_0 :J0_14_0 :J0_15_0"/>
    <junction id=":J0_21_0" type="internal" x="100.80" y="94.00" incLanes=":J0_11_0 E2J0_0 N2J0_0 W2J0_0" intLanes=":J0_1_0 :J0_6_0 :J0_12_0"/>
    <junction id=":J0_22_0" type="internal" x="96.80" y="99.04" incLanes=":J0_14_0 E2J0_0" intLanes=":J0_1_0 :J0_2_0 :J0_3_0 :J0_4_0 :J0_5_0 :J0_9_0 :J0_10_0"/>
    <junction id=":J0_23_0" type="internal" x="94.00" y="99.20" incLanes=":J0_15_0 E2J0_0 N2J0_0 S2J0_0" intLanes=":J0_0_0 :J0_5_0 :J0_10_0"/>

    <connection from="E2J0" to="J02N" fromLane="0" toLane="0" via=":J0_4_0" tl="J0" linkIndex="4" dir="r" state="o"/>
    <connection from="E2J0" to="J02W" fromLane="0" toLane="0" via=":J0_5_0" tl="J0" linkIndex="5" dir="s" state="o"/>
    <connection from="E2J0" to="J02S" fromLane="0" toLane="0" via=":J0_6_0" tl="J0" linkIndex="6" dir="l" state="o"/>
    <connection from="E2J0" to="J02E" fromLane="0" toLane="0" via=":J0_7_0" tl="J0" linkIndex="7" dir="t" state="o"/>
    <connection from="J02E" to="E2J0" fromLane="0" toLane="0" via=":E_0_0" dir="t" state="M"/>
    <connection from="J02N" to="N2J0" fromLane="0" toLane="0" via=":N_0_0" dir="t" state="M"/>
    <connection from="J02S" to="S2J0" fromLane="0" toLane="0" via=":S_0_0" dir="t" state="M"/>
    <connection from="J02W" to="W2J0" fromLane="0" toLane="0" via=":W_0_0" dir="t" state="M"/>
    <connection from="N2J0" to="J02W" fromLane="0" toLane="0" via=":J0_0_0" tl="J0" linkIndex="0" dir="r" state="O"/>
    <connection from="N2J0" to="J02S" fromLane="0" toLane="0" via=":J0_1_0" tl="J0" linkIndex="1" dir="s" state="O"/>
    <connection from="N2J0" to="J02E" fromLane="0" toLane="0" via=":J0_2_0" tl="J0" linkIndex="2" dir="l" state="o"/>
    <connection from="N2J0" to="J02N" fromLane="0" toLane="0" via=":J0_3_0" tl="J0" linkIndex="3" dir="t" state="o"/>
    <connection from="S2J0" to="J02E" fromLane="0" toLane="0" via=":J0_8_0" tl="J0" linkIndex="8" dir="r" state="O"/>
    <connection from="S2J0" to="J02N" fromLane="0" toLane="0" via=":J0_9_0" tl="J0" linkIndex="9" dir="s" state="O"/>
    <connection from="S2J0" to="J02W" fromLane="0" toLane="0" via=":J0_10_0" tl="J0" linkIndex="10" dir="l" state="o"/>
    <connection from="S2J0" to="J02S" fromLane="0" toLane="0" via=":J0_11_0" tl="J0" linkIndex="11" dir="t" state="o"/>
    <connection from="W2J0" to="J02S" fromLane="0" toLane="0" via=":J0_12_0" tl="J0" linkIndex="12" dir="r" state="o"/>
    <connection from="W2J0" to="J02E" fromLane="0" toLane="0" via=":J0_13_0" tl="J0" linkIndex="13" dir="s" state="o"/>
    <connection from="W2J0" to="J02N" fromLane="0" toLane="0" via=":J0_14_0" tl="J0" linkIndex="14" dir="l" state="o"/>
    <connection from="W2J0" to="J02W" fromLane="0" toLane="0" via=":J0_15_0" tl="J0" linkIndex="15" dir="t" state="o"/>

    <connection from=":E_0" to="E2J0" fromLane="0" toLane="0" dir="t" state="M"/>
    <connection from=":J0_0" to="J02W" fromLane="0" toLane="0" dir="r" state="M"/>
    <connection from=":J0_1" to="J02S" fromLane="0" toLane="0" dir="s" state="M"/>
    <connection from=":J0_2" to="J02E" fromLane="0" toLane="0" via=":J0_16_0" dir="l" state="m"/>
    <connection from=":J0_16" to="J02E" fromLane="0" toLane="0" dir="l" state="M"/>
    <connection from=":J0_3" to="J02N" fromLane="0" toLane="0" via=":J0_17_0" dir="t" state="m"/>
    <connection from=":J0_17" to="J02N" fromLane="0" toLane="0" dir="t" state="M"/>
    <connection from=":J0_4" to="J02N" fromLane="0" toLane="0" dir="r" state="M"/>
    <connection from=":J0_5" to="J02W" fromLane="0" toLane="0" dir="s" state="M"/>
    <connection from=":J0_6" to="J02S" fromLane="0" toLane="0" via=":J0_18_0" dir="l" state="m"/>
    <connection from=":J0_18" to="J02S" fromLane="0" toLane="0" dir="l" state="M"/>
    <connection from=":J0_7" to="J02E" fromLane="0" toLane="0" via=":J0_19_0" dir="t" state="m"/>
    <connection from=":J0_19" to="J02E" fromLane="0" toLane="0" dir="t" state="M"/>
    <connection from=":J0_8" to="J02E" fromLane="0" toLane="0" dir="r" state="M"/>
    <connection from=":J0_9" to="J02N" fromLane="0" toLane="0" dir="s" state="M"/>
    <connection from=":J0_10" to="J02W" fromLane="0" toLane="0" via=":J0_20_0" dir="l" state="m"/>
    <connection from=":J0_20" to="J02W" fromLane="0" toLane="0" dir="l" state="M"/>
    <connection from=":J0_11" to="J02S" fromLane="0" toLane="0" via=":J0_21_0" dir="t" state="m"/>
    <connection from=":J0_21" to="J02S" fromLane="0" toLane="0" dir="t" state="M"/>
    <connection from=":J0_12" to="J02S" fromLane="0" toLane="0" dir="r" state="M"/>
    <connection from=":J0_13" to="J02E" fromLane="0" toLane="0" dir="s" state="M"/>
    <connection from=":J0_14" to="J02N" fromLane="0" toLane="0" via=":J0_22_0" dir="l" state="m"/>
    <connection from=":J0_22" to="J02N" fromLane="0" toLane="0" dir="l" state="M"/>
    <connection from=":J0_15" to="J02W" fromLane="0" toLane="0" via=":J0_23_0" dir="t" state="m"/>
    <connection from=":J0_23" to="J02W" fromLane="0" toLane="0" dir="t" state="M"/>
    <connection from=":N_0" to="N2J0" fromLane="0" toLane="0" dir="t" state="M"/>
    <connection from=":S_0" to="S2J0" fromLane="0" toLane="0" dir="t" state="M"/>
    <connection from=":W_0" to="W2J0" fromLane="0" toLane="0" dir="t" state="M"/>

</net>
