<?xml version="1.0" encoding="UTF-8"?>
<routes xmlns:xsi="http://www.w3.org/2001/XMLSchema-instance" xsi:noNamespaceSchemaLocation="http://sumo.dlr.de/xsd/routes_file.xsd">
  <vType id="car" accel="2.0" decel="4.5" sigma="0.5" length="5.0" maxSpeed="13.89"/>

  <route id="north_south" edges="N2J0 J02S"/>
  <route id="south_north" edges="S2J0 J02N"/>
  <route id="east_west" edges="E2J0 J02W"/>
  <route id="west_east" edges="W2J0 J02E"/>

  <flow id="f_ns" route="north_south" type="car" departLane="best" departSpeed="max" begin="0" end="3600" vehsPerHour="800"/>
  <flow id="f_sn" route="south_north" type="car" departLane="best" departSpeed="max" begin="0" end="3600" vehsPerHour="600"/>
  <flow id="f_ew" route="east_west" type="car" departLane="best" departSpeed="max" begin="0" end="3600" vehsPerHour="500"/>
  <flow id="f_we" route="west_east" type="car" departLane="best" departSpeed="max" begin="0" end="3600" vehsPerHour="900"/>
</routes>
